Circuit: * Z:\Users\markuskreitzer\code_n_scripts\School--Homework--Projects\Fall2012\Lab 3\LTSpice\Figure_3.11.asc

Direct Newton iteration for .op point succeeded.
.step vo=0.01
.step vo=0.02
.step vo=0.03
.step vo=0.04
.step vo=0.05
.step vo=0.06
.step vo=0.07
.step vo=0.08
.step vo=0.09
.step vo=0.1
.step vo=0.11
.step vo=0.12
.step vo=0.13
.step vo=0.14
.step vo=0.15

Date: Wed Sep 12 14:50:46 2012
Total elapsed time: 1.133 seconds.

tnom = 27
temp = 27
method = modified trap
totiter = 2104
traniter = 2088
tranpoints = 1045
accept = 1045
rejected = 0
matrix size = 18
fillins = 19
solver = Normal
Matrix Compiler1:     110 opcodes  0.6/0.4/[0.3]
Matrix Compiler2: off  [0.4]/0.5/1.1


