Circuit: * Z:\Users\markuskreitzer\code_n_scripts\School--Homework--Projects\Fall2012\Lab 3\LTSpice\Figure_3.10.asc

Direct Newton iteration for .op point succeeded.

Date: Wed Sep 12 13:54:27 2012
Total elapsed time: 0.041 seconds.

tnom = 27
temp = 27
method = modified trap
totiter = 2138
traniter = 2091
tranpoints = 1045
accept = 1045
rejected = 0
matrix size = 13
fillins = 8
solver = Normal
Matrix Compiler1: 1.36 KB object code size  0.3/0.3/[0.3]
Matrix Compiler2: 1.18 KB object code size  0.4/0.3/[0.2]


