Circuit: * Z:\markuskreitzer On My Mac\code_n_scripts\School--Homework--Projects\Fall2012\Lab 3\LTSpice\Prelab2-schematic1.asc

Direct Newton iteration for .op point succeeded.

Date: Wed Aug 29 14:41:37 2012
Total elapsed time: 0.140 seconds.

tnom = 27
temp = 27
method = trap
totiter = 6
traniter = 0
tranpoints = 0
accept = 0
rejected = 0
matrix size = 11
fillins = 0
solver = Normal
Matrix Compiler1:      33 opcodes
Matrix Compiler2: 847 bytes object code size

